5
Properties=species:S:1:pos:R:3 energy=-176.30183 dipole="-0.06932871336340038 0.14115575873989628 0.08286134510100106" pbc="F F F"
C       -0.59954000       0.00000000       1.00000000
H       -1.11688645       0.83906736       1.64579053
H       -0.69085808      -0.75843984       1.72361871
H        0.33760831       0.36823027       0.99685071
H       -1.21554080       0.19879071       0.01990765
