4
Properties=species:S:1:pos:R:3 energy=-270.80413 dipole="0.0037474980196432633 0.025191514465379716 0.06058455131756609" pbc="F F F"
C        0.61000000       0.00000000       1.00000000
C       -0.59954000       0.00000000       1.00000000
H       -1.61694830      -0.03049204       1.10489283
H        1.62810950       0.15274446       1.19080631
