4
Properties=species:S:1:pos:R:3:forces:R:3 energy=-270.90302 dipole="0.00020819433442462577 0.00020819433442462577 -0.0006245830032738773" pbc="F F F"
C        0.60956629       0.04958426       0.95212396      -0.02898734      -0.00217441      -0.00830956
C       -0.59841838       0.00888843       0.91727579       0.04228703       0.00684320      -0.00114360
H       -1.62703386      -0.02438377       0.88653087       0.01499878      -0.00277561       0.00444452
H        1.63871144       0.08427571       0.97969686      -0.02829837      -0.00189319       0.00500864
