4
Properties=species:S:1:pos:R:3 energy=-265.60295 dipole="0.024775125796530465 0.04580275357341767 -0.010201522386806662" pbc="F F F"
C        0.61000000       0.00000000       1.00000000
C       -0.59954000       0.00000000       1.00000000
H       -1.59036454       0.16993386       1.07689104
H        1.67875892       0.04646034       0.87807349
