4
Properties=species:S:1:pos:R:3 energy=-269.23816 dipole="-0.05995996831429221 -0.01915387876706557 0.24920861830627705" pbc="F F F"
C        0.61000000       0.00000000       1.00000000
C       -0.59954000       0.00000000       1.00000000
H       -1.43468880      -0.09681290       1.47553542
H        1.26449773       0.00608170       1.70811098
4
Properties=species:S:1:pos:R:3 energy=-269.81093 dipole="0.11867077062203667 0.17488324091668564 -0.03081276149484461" pbc="F F F"
C        0.61000000       0.00000000       1.00000000
C       -0.59954000       0.00000000       1.00000000
H       -1.39004830       0.34875288       0.63030512
H        1.68631879       0.44320473       1.19827572
4
Properties=species:S:1:pos:R:3 energy=-270.45845 dipole="-0.08556787144852118 0.004372081022917141 0.020403044773613325" pbc="F F F"
C        0.61000000       0.00000000       1.00000000
C       -0.59954000       0.00000000       1.00000000
H       -1.68249232      -0.09850698       1.18087657
H        1.48168712       0.13245041       0.90588635
4
Properties=species:S:1:pos:R:3 energy=-269.93289 dipole="0.0709942680387974 0.18966503866083406 0.026232486137502845" pbc="F F F"
C        0.61000000       0.00000000       1.00000000
C       -0.59954000       0.00000000       1.00000000
H       -1.36544013       0.55078419       0.90550119
H        1.57301022       0.35915039       1.21170304
4
Properties=species:S:1:pos:R:3 energy=-270.38206 dipole="0.09264647881895846 0.05891899664216908 -0.00978513371795741" pbc="F F F"
C        0.61000000       0.00000000       1.00000000
C       -0.59954000       0.00000000       1.00000000
H       -1.44117328       0.25110804       1.00833968
H        1.69447476       0.05421912       0.94637808
4
Properties=species:S:1:pos:R:3 energy=-270.48986 dipole="-0.06683038135030488 -0.02415054279325659 0.022901376786708835" pbc="F F F"
C        0.61000000       0.00000000       1.00000000
C       -0.59954000       0.00000000       1.00000000
H       -1.80133931       0.00370742       0.99344709
H        1.66684445      -0.11901495       1.11577627
4
Properties=species:S:1:pos:R:3 energy=-270.39875 dipole="-0.03122915016369386 0.15614575081846932 -0.03622581418988488" pbc="F F F"
C        0.61000000       0.00000000       1.00000000
C       -0.59954000       0.00000000       1.00000000
H       -1.66025380       0.27948183       0.95356306
H        1.57725575       0.45155930       0.87675523
