5
Properties=species:S:1:pos:R:3 energy=-164.8482 dipole="0.13678367771697914 0.06079274565199072 -0.31229150163693864" pbc="F F F"
C       -0.59954000       0.00000000       1.00000000
H       -0.70282218       0.62664388       0.74647684
H        0.34355355       0.61229193       1.23488729
H       -0.83043005      -0.44393029       0.45736715
H       -0.30292113      -0.91865004      -0.17101402
