5
Properties=species:S:1:pos:R:3:forces:R:3 energy=-177.04321 dipole="0.00020819433442462577 -0.0 -0.00041638866884925155" pbc="F F F"
C       -0.60249600       0.00971936       0.91564375       0.00209882      -0.00051803       0.00086347
H       -0.82520747       0.81222598       0.22047844      -0.00511653       0.00874758      -0.00420428
H        0.11692113       0.35689917       1.65009248      -0.00155001       0.00067709       0.00518132
H       -1.51403290      -0.29794031       1.41776297       0.00216821       0.00191370       0.00097582
H       -0.18657957      -0.83239739       0.37276126       0.00239947      -0.01082034      -0.00281633
