5
Properties=species:S:1:pos:R:3 energy=-174.99109 dipole="0.1267903496645971 0.00978513371795741 0.0347684538489125" pbc="F F F"
C       -0.59954000       0.00000000       1.00000000
H       -0.48591625       0.81927398       0.28334195
H        0.32096205       0.07687181       2.06206075
H       -1.80032771      -0.20352552       1.12041186
H        0.15036561      -0.58085718       0.66720658
