5
Properties=species:S:1:pos:R:3:forces:R:3 energy=-177.0432 dipole="-0.0 -0.0 0.0008327773376985031" pbc="F F F"
C       -0.47407642      -0.01789459       0.60538976      -0.00588911      -0.00004120       0.01922517
H       -1.09275930       0.75274024       0.15653219       0.00695864      -0.01026871      -0.00632899
H        0.04099047       0.39125065       1.46872526       0.00093545      -0.00176748      -0.00125730
H       -1.09968136      -0.84803924       0.91794094       0.00113558       0.00590788      -0.00354619
H        0.25506240      -0.36793205      -0.11784084      -0.00314060       0.00616945      -0.00809270
